35
Coordinates from ORCA-job calc
  I   1.10901726000000     -0.19335423000000      0.43405561000000
  C   0.72782145000000      0.22620904000000      2.54427883000000
  C   1.78165416000000      0.57084336000000      3.37528522000000
  C   -0.55347656000000      0.12580066000000      3.06245690000000
  C   1.55284367000000      0.83215698000000      4.71589954000000
  H   2.77870673000000      0.63423319000000      2.96375386000000
  C   -0.78396956000000      0.39081899000000      4.40108880000000
  H   -1.37352562000000     -0.15486462000000      2.41581319000000
  C   0.26923665000000      0.74600015000000      5.22813428000000
  H   2.37601979000000      1.10486453000000      5.35948677000000
  H   -1.78504431000000      0.31601035000000      4.79966111000000
  H   0.08886994000000      0.95226375000000      6.27260923000000
  C   -0.59306126000000      0.98913483000000      0.00861014000000
  C   -1.57195748000000      0.49812106000000     -0.83169508000000
  C   -0.69700795000000      2.23741286000000      0.59128724000000
  C   -2.68431992000000      1.28016266000000     -1.09393056000000
  H   -1.45995895000000     -0.47292459000000     -1.28796193000000
  C   -1.81277778000000      3.01199462000000      0.32206765000000
  H   0.08019116000000      2.59983331000000      1.24733057000000
  C   -2.80531917000000      2.53412096000000     -0.51785052000000
  H   -3.45635192000000      0.90621102000000     -1.74945509000000
  H   -1.90159413000000      3.99192756000000      0.76654237000000
  H   -3.67314773000000      3.14167986000000     -0.72637934000000
  O   1.13663322000000     -0.13950208000000     -1.75954582000000
  C   1.17857756000000     -1.16183062000000     -2.60301970000000
  C   1.21633111000000     -2.49355782000000     -2.18497126000000
  C   1.16240995000000     -0.89641187000000     -3.97777382000000
  C   1.23938569000000     -3.52139734000000     -3.10672497000000
  H   1.23351304000000     -2.70312559000000     -1.12288345000000
  C   1.18428978000000     -1.93102239000000     -4.88982335000000
  H   1.13185700000000      0.13299650000000     -4.30248576000000
  C   1.22230239000000     -3.24891911000000     -4.46372085000000
  H   1.27039515000000     -4.54519154000000     -2.76054504000000
  H   1.17148952000000     -1.70600352000000     -5.94716446000000
  H   1.23996698000000     -4.05469094000000     -5.18243030000000
